outputs/dss_files/best_solution_stage_3.dss
Clear

New Circuit.network_stage_3
~ basekv=13.8 pu=1.0 angle=0.0

! ==========================
! Lines
! ==========================

New Line.LN001 Phases=3 Bus1=sourcebus.1.2.3 Bus2=B3.1.2.3 length=0.436 r1=0.2359 x1=0.2402 r0=0.2359 x0=0.2402 c1=0 c0=0 units=km normamps=250.0
New Line.LN003 Phases=3 Bus1=B4.1.2.3 Bus2=B7.1.2.3 length=0.5 r1=0.2359 x1=0.2402 r0=0.2359 x0=0.2402 c1=0 c0=0 units=km normamps=250.0
New Line.LN004 Phases=3 Bus1=B4.1.2.3 Bus2=B5.1.2.3 length=0.624 r1=0.3655 x1=0.252 r0=0.3655 x0=0.252 c1=0 c0=0 units=km normamps=150.0
New Line.LN005 Phases=3 Bus1=B7.1.2.3 Bus2=B8.1.2.3 length=0.624 r1=0.3655 x1=0.252 r0=0.3655 x0=0.252 c1=0 c0=0 units=km normamps=150.0
New Line.LN006 Phases=3 Bus1=B15.1.2.3 Bus2=B16.1.2.3 length=0.5 r1=0.2359 x1=0.2402 r0=0.2359 x0=0.2402 c1=0 c0=0 units=km normamps=250.0
New Line.LN007 Phases=3 Bus1=sourcebus.1.2.3 Bus2=B11.1.2.3 length=0.686 r1=0.2921 x1=0.2466 r0=0.2921 x0=0.2466 c1=0 c0=0 units=km normamps=200.0
New Line.LN008 Phases=3 Bus1=B5.1.2.3 Bus2=B6.1.2.3 length=0.624 r1=0.0966 x1=0.1201 r0=0.0966 x0=0.1201 c1=0 c0=0 units=km normamps=600.0
New Line.LN009 Phases=3 Bus1=B1.1.2.3 Bus2=B9.1.2.3 length=1.436 r1=0.2921 x1=0.2466 r0=0.2921 x0=0.2466 c1=0 c0=0 units=km normamps=200.0
New Line.LN010 Phases=3 Bus1=B1.1.2.3 Bus2=B2.1.2.3 length=0.75 r1=0.1932 x1=0.2279 r0=0.1932 x0=0.2279 c1=0 c0=0 units=km normamps=300.0
New Line.LN012 Phases=3 Bus1=sourcebus.1.2.3 Bus2=B14.1.2.3 length=0.562 r1=0.1932 x1=0.2279 r0=0.1932 x0=0.2279 c1=0 c0=0 units=km normamps=300.0
New Line.LN013 Phases=3 Bus1=B14.1.2.3 Bus2=B15.1.2.3 length=0.562 r1=0.0966 x1=0.1201 r0=0.0966 x0=0.1201 c1=0 c0=0 units=km normamps=600.0
New Line.LN014 Phases=3 Bus1=B11.1.2.3 Bus2=B12.1.2.3 length=0.624 r1=0.2921 x1=0.2466 r0=0.2921 x0=0.2466 c1=0 c0=0 units=km normamps=200.0
New Line.LN016 Phases=3 Bus1=B19.1.2.3 Bus2=B20.1.2.3 length=0.624 r1=0.3655 x1=0.252 r0=0.3655 x0=0.252 c1=0 c0=0 units=km normamps=150.0
New Line.LN017 Phases=3 Bus1=B18.1.2.3 Bus2=B19.1.2.3 length=0.5 r1=0.3655 x1=0.252 r0=0.3655 x0=0.252 c1=0 c0=0 units=km normamps=150.0
New Line.LN018 Phases=3 Bus1=B17.1.2.3 Bus2=B18.1.2.3 length=0.812 r1=0.2359 x1=0.2402 r0=0.2359 x0=0.2402 c1=0 c0=0 units=km normamps=250.0
New Line.LN019 Phases=3 Bus1=B9.1.2.3 Bus2=B17.1.2.3 length=0.86 r1=0.2359 x1=0.2402 r0=0.2359 x0=0.2402 c1=0 c0=0 units=km normamps=250.0
New Line.LN020 Phases=3 Bus1=B18.1.2.3 Bus2=B21.1.2.3 length=0.624 r1=0.1932 x1=0.2279 r0=0.1932 x0=0.2279 c1=0 c0=0 units=km normamps=300.0
New Line.LN021 Phases=3 Bus1=sourcebus.1.2.3 Bus2=B21.1.2.3 length=0.5 r1=0.3655 x1=0.252 r0=0.3655 x0=0.252 c1=0 c0=0 units=km normamps=150.0
New Line.LN024 Phases=3 Bus1=B22.1.2.3 Bus2=B23.1.2.3 length=0.686 r1=0.3655 x1=0.252 r0=0.3655 x0=0.252 c1=0 c0=0 units=km normamps=150.0
New Line.LN025 Phases=3 Bus1=B23.1.2.3 Bus2=B24.1.2.3 length=0.562 r1=0.2359 x1=0.2402 r0=0.2359 x0=0.2402 c1=0 c0=0 units=km normamps=250.0
New Line.LN026 Phases=3 Bus1=B24.1.2.3 Bus2=B25.1.2.3 length=0.436 r1=0.1932 x1=0.2279 r0=0.1932 x0=0.2279 c1=0 c0=0 units=km normamps=300.0
New Line.LN027 Phases=3 Bus1=B25.1.2.3 Bus2=B8.1.2.3 length=0.562 r1=0.2359 x1=0.2402 r0=0.2359 x0=0.2402 c1=0 c0=0 units=km normamps=250.0
New Line.LN029 Phases=3 Bus1=B27.1.2.3 Bus2=B26.1.2.3 length=0.686 r1=0.3655 x1=0.252 r0=0.3655 x0=0.252 c1=0 c0=0 units=km normamps=150.0
New Line.LN030 Phases=3 Bus1=B27.1.2.3 Bus2=B28.1.2.3 length=0.624 r1=0.2359 x1=0.2402 r0=0.2359 x0=0.2402 c1=0 c0=0 units=km normamps=250.0
New Line.LN031 Phases=3 Bus1=B6.1.2.3 Bus2=B28.1.2.3 length=1.0 r1=0.3655 x1=0.252 r0=0.3655 x0=0.252 c1=0 c0=0 units=km normamps=150.0
New Line.LN032 Phases=3 Bus1=sourcebus.1.2.3 Bus2=B30.1.2.3 length=0.562 r1=0.2921 x1=0.2466 r0=0.2921 x0=0.2466 c1=0 c0=0 units=km normamps=200.0
New Line.LN033 Phases=3 Bus1=B30.1.2.3 Bus2=B29.1.2.3 length=0.624 r1=0.3655 x1=0.252 r0=0.3655 x0=0.252 c1=0 c0=0 units=km normamps=150.0
New Line.LN034 Phases=3 Bus1=B30.1.2.3 Bus2=B43.1.2.3 length=0.812 r1=0.3655 x1=0.252 r0=0.3655 x0=0.252 c1=0 c0=0 units=km normamps=150.0
New Line.LN035 Phases=3 Bus1=B43.1.2.3 Bus2=B37.1.2.3 length=0.5 r1=0.2359 x1=0.2402 r0=0.2359 x0=0.2402 c1=0 c0=0 units=km normamps=250.0
New Line.LN036 Phases=3 Bus1=B37.1.2.3 Bus2=B31.1.2.3 length=0.374 r1=0.2921 x1=0.2466 r0=0.2921 x0=0.2466 c1=0 c0=0 units=km normamps=200.0
New Line.LN037 Phases=3 Bus1=B31.1.2.3 Bus2=B10.1.2.3 length=0.624 r1=0.2359 x1=0.2402 r0=0.2359 x0=0.2402 c1=0 c0=0 units=km normamps=250.0
New Line.LN038 Phases=3 Bus1=B13.1.2.3 Bus2=B43.1.2.3 length=0.75 r1=0.2359 x1=0.2402 r0=0.2359 x0=0.2402 c1=0 c0=0 units=km normamps=250.0
New Line.LN039 Phases=3 Bus1=B44.1.2.3 Bus2=B38.1.2.3 length=0.5 r1=0.1932 x1=0.2279 r0=0.1932 x0=0.2279 c1=0 c0=0 units=km normamps=300.0
New Line.LN041 Phases=3 Bus1=B39.1.2.3 Bus2=B32.1.2.3 length=0.624 r1=0.2921 x1=0.2466 r0=0.2921 x0=0.2466 c1=0 c0=0 units=km normamps=200.0
New Line.LN042 Phases=3 Bus1=B39.1.2.3 Bus2=B33.1.2.3 length=0.686 r1=0.2921 x1=0.2466 r0=0.2921 x0=0.2466 c1=0 c0=0 units=km normamps=200.0
New Line.LN043 Phases=3 Bus1=B33.1.2.3 Bus2=B8.1.2.3 length=0.812 r1=0.0966 x1=0.1201 r0=0.0966 x0=0.1201 c1=0 c0=0 units=km normamps=600.0
New Line.LN044 Phases=3 Bus1=B33.1.2.3 Bus2=B34.1.2.3 length=0.562 r1=0.1932 x1=0.2279 r0=0.1932 x0=0.2279 c1=0 c0=0 units=km normamps=300.0
New Line.LN045 Phases=3 Bus1=B34.1.2.3 Bus2=B35.1.2.3 length=0.936 r1=0.1932 x1=0.2279 r0=0.1932 x0=0.2279 c1=0 c0=0 units=km normamps=300.0
New Line.LN046 Phases=3 Bus1=B35.1.2.3 Bus2=B36.1.2.3 length=0.374 r1=0.3655 x1=0.252 r0=0.3655 x0=0.252 c1=0 c0=0 units=km normamps=150.0
New Line.LN048 Phases=3 Bus1=sourcebus.1.2.3 Bus2=B28.1.2.3 length=0.436 r1=0.3655 x1=0.252 r0=0.3655 x0=0.252 c1=0 c0=0 units=km normamps=150.0
New Line.LN049 Phases=3 Bus1=sourcebus.1.2.3 Bus2=B41.1.2.3 length=0.5 r1=0.2921 x1=0.2466 r0=0.2921 x0=0.2466 c1=0 c0=0 units=km normamps=200.0
New Line.LN050 Phases=3 Bus1=B41.1.2.3 Bus2=B40.1.2.3 length=0.624 r1=0.2921 x1=0.2466 r0=0.2921 x0=0.2466 c1=0 c0=0 units=km normamps=200.0
New Line.LN052 Phases=3 Bus1=B41.1.2.3 Bus2=B42.1.2.3 length=0.75 r1=0.2921 x1=0.2466 r0=0.2921 x0=0.2466 c1=0 c0=0 units=km normamps=200.0
New Line.LN053 Phases=3 Bus1=B42.1.2.3 Bus2=B48.1.2.3 length=0.5 r1=0.0966 x1=0.1201 r0=0.0966 x0=0.1201 c1=0 c0=0 units=km normamps=600.0
New Line.LN054 Phases=3 Bus1=B48.1.2.3 Bus2=B49.1.2.3 length=0.75 r1=0.2359 x1=0.2402 r0=0.2359 x0=0.2402 c1=0 c0=0 units=km normamps=250.0
New Line.LN055 Phases=3 Bus1=B49.1.2.3 Bus2=B50.1.2.3 length=0.5 r1=0.2921 x1=0.2466 r0=0.2921 x0=0.2466 c1=0 c0=0 units=km normamps=200.0
New Line.LN056 Phases=3 Bus1=B42.1.2.3 Bus2=B47.1.2.3 length=0.75 r1=0.3655 x1=0.252 r0=0.3655 x0=0.252 c1=0 c0=0 units=km normamps=150.0
New Line.LN057 Phases=3 Bus1=B47.1.2.3 Bus2=B46.1.2.3 length=0.436 r1=0.1932 x1=0.2279 r0=0.1932 x0=0.2279 c1=0 c0=0 units=km normamps=300.0
New Line.LN059 Phases=3 Bus1=B12.1.2.3 Bus2=B45.1.2.3 length=0.624 r1=0.2921 x1=0.2466 r0=0.2921 x0=0.2466 c1=0 c0=0 units=km normamps=200.0
New Line.LN060 Phases=3 Bus1=B45.1.2.3 Bus2=B44.1.2.3 length=0.686 r1=0.2359 x1=0.2402 r0=0.2359 x0=0.2402 c1=0 c0=0 units=km normamps=250.0

! ==========================
! Loads
! ==========================

New Load.Load_B1_1 Bus1=B1.1.2.3 Phases=3 Conn=Wye Model=1 kV=13.8 kW=1512.0 kVAR=732.28
New Load.Load_B2_1 Bus1=B2.1.2.3 Phases=3 Conn=Wye Model=1 kV=13.8 kW=540.0 kVAR=261.52
New Load.Load_B3_2 Bus1=B3.1.2.3 Phases=3 Conn=Wye Model=1 kV=13.8 kW=252.0 kVAR=122.04
New Load.Load_B4_2 Bus1=B4.1.2.3 Phases=3 Conn=Wye Model=1 kV=13.8 kW=396.0 kVAR=191.8
New Load.Load_B5_1 Bus1=B5.1.2.3 Phases=3 Conn=Wye Model=1 kV=13.8 kW=936.0 kVAR=453.32
New Load.Load_B6_2 Bus1=B6.1.2.3 Phases=3 Conn=Wye Model=1 kV=13.8 kW=252.0 kVAR=122.04
New Load.Load_B7_1 Bus1=B7.1.2.3 Phases=3 Conn=Wye Model=1 kV=13.8 kW=360.0 kVAR=174.36
New Load.Load_B8_1 Bus1=B8.1.2.3 Phases=3 Conn=Wye Model=1 kV=13.8 kW=684.0 kVAR=331.28
New Load.Load_B9_1 Bus1=B9.1.2.3 Phases=3 Conn=Wye Model=1 kV=13.8 kW=432.0 kVAR=209.24
New Load.Load_B10_1 Bus1=B10.1.2.3 Phases=3 Conn=Wye Model=1 kV=13.8 kW=1044.0 kVAR=505.64
New Load.Load_B11_2 Bus1=B11.1.2.3 Phases=3 Conn=Wye Model=1 kV=13.8 kW=108.0 kVAR=52.32
New Load.Load_B12_1 Bus1=B12.1.2.3 Phases=3 Conn=Wye Model=1 kV=13.8 kW=648.0 kVAR=313.84
New Load.Load_B13_1 Bus1=B13.1.2.3 Phases=3 Conn=Wye Model=1 kV=13.8 kW=396.0 kVAR=191.8
New Load.Load_B14_1 Bus1=B14.1.2.3 Phases=3 Conn=Wye Model=1 kV=13.8 kW=360.0 kVAR=174.36
New Load.Load_B15_1 Bus1=B15.1.2.3 Phases=3 Conn=Wye Model=1 kV=13.8 kW=504.0 kVAR=244.08
New Load.Load_B16_1 Bus1=B16.1.2.3 Phases=3 Conn=Wye Model=1 kV=13.8 kW=684.0 kVAR=331.28
New Load.Load_B17_1 Bus1=B17.1.2.3 Phases=3 Conn=Wye Model=1 kV=13.8 kW=126.0 kVAR=61.02
New Load.Load_B17_4 Bus1=B17.1.2.3 Phases=3 Conn=Wye Model=1 kV=13.8 kW=126.0 kVAR=61.02
New Load.Load_B18_1 Bus1=B18.1.2.3 Phases=3 Conn=Wye Model=1 kV=13.8 kW=432.0 kVAR=209.24
New Load.Load_B19_1 Bus1=B19.1.2.3 Phases=3 Conn=Wye Model=1 kV=13.8 kW=504.0 kVAR=244.08
New Load.Load_B20_1 Bus1=B20.1.2.3 Phases=3 Conn=Wye Model=1 kV=13.8 kW=288.0 kVAR=139.48
New Load.Load_B21_1 Bus1=B21.1.2.3 Phases=3 Conn=Wye Model=1 kV=13.8 kW=648.0 kVAR=313.84
New Load.Load_B22_2 Bus1=B22.1.2.3 Phases=3 Conn=Wye Model=1 kV=13.8 kW=396.0 kVAR=191.8
New Load.Load_B23_2 Bus1=B23.1.2.3 Phases=3 Conn=Wye Model=1 kV=13.8 kW=360.0 kVAR=174.36
New Load.Load_B24_1 Bus1=B24.1.2.3 Phases=3 Conn=Wye Model=1 kV=13.8 kW=180.0 kVAR=87.16
New Load.Load_B25_2 Bus1=B25.1.2.3 Phases=3 Conn=Wye Model=1 kV=13.8 kW=324.0 kVAR=156.92
New Load.Load_B26_1 Bus1=B26.1.2.3 Phases=3 Conn=Wye Model=1 kV=13.8 kW=432.0 kVAR=209.24
New Load.Load_B27_1 Bus1=B27.1.2.3 Phases=3 Conn=Wye Model=1 kV=13.8 kW=540.0 kVAR=261.52
New Load.Load_B28_1 Bus1=B28.1.2.3 Phases=3 Conn=Wye Model=1 kV=13.8 kW=252.0 kVAR=122.04
New Load.Load_B29_1 Bus1=B29.1.2.3 Phases=3 Conn=Wye Model=1 kV=13.8 kW=504.0 kVAR=244.08
New Load.Load_B30_1 Bus1=B30.1.2.3 Phases=3 Conn=Wye Model=1 kV=13.8 kW=936.0 kVAR=453.32
New Load.Load_B31_2 Bus1=B31.1.2.3 Phases=3 Conn=Wye Model=1 kV=13.8 kW=252.0 kVAR=122.04
New Load.Load_B32_1 Bus1=B32.1.2.3 Phases=3 Conn=Wye Model=1 kV=13.8 kW=306.0 kVAR=148.2
New Load.Load_B32_4 Bus1=B32.1.2.3 Phases=3 Conn=Wye Model=1 kV=13.8 kW=306.0 kVAR=148.2
New Load.Load_B33_1 Bus1=B33.1.2.3 Phases=3 Conn=Wye Model=1 kV=13.8 kW=1044.0 kVAR=505.64
New Load.Load_B34_1 Bus1=B34.1.2.3 Phases=3 Conn=Wye Model=1 kV=13.8 kW=432.0 kVAR=209.24
New Load.Load_B35_1 Bus1=B35.1.2.3 Phases=3 Conn=Wye Model=1 kV=13.8 kW=324.0 kVAR=156.92
New Load.Load_B36_1 Bus1=B36.1.2.3 Phases=3 Conn=Wye Model=1 kV=13.8 kW=108.0 kVAR=52.32
New Load.Load_B37_1 Bus1=B37.1.2.3 Phases=3 Conn=Wye Model=1 kV=13.8 kW=756.0 kVAR=366.16
New Load.Load_B38_1 Bus1=B38.1.2.3 Phases=3 Conn=Wye Model=1 kV=13.8 kW=396.0 kVAR=191.8
New Load.Load_B39_1 Bus1=B39.1.2.3 Phases=3 Conn=Wye Model=1 kV=13.8 kW=360.0 kVAR=174.36
New Load.Load_B40_1 Bus1=B40.1.2.3 Phases=3 Conn=Wye Model=1 kV=13.8 kW=504.0 kVAR=244.08
New Load.Load_B41_1 Bus1=B41.1.2.3 Phases=3 Conn=Wye Model=1 kV=13.8 kW=324.0 kVAR=156.92
New Load.Load_B42_1 Bus1=B42.1.2.3 Phases=3 Conn=Wye Model=1 kV=13.8 kW=432.0 kVAR=209.24
New Load.Load_B43_1 Bus1=B43.1.2.3 Phases=3 Conn=Wye Model=1 kV=13.8 kW=234.0 kVAR=113.34
New Load.Load_B43_4 Bus1=B43.1.2.3 Phases=3 Conn=Wye Model=1 kV=13.8 kW=234.0 kVAR=113.34
New Load.Load_B44_1 Bus1=B44.1.2.3 Phases=3 Conn=Wye Model=1 kV=13.8 kW=252.0 kVAR=122.04
New Load.Load_B44_4 Bus1=B44.1.2.3 Phases=3 Conn=Wye Model=1 kV=13.8 kW=252.0 kVAR=122.04
New Load.Load_B45_2 Bus1=B45.1.2.3 Phases=3 Conn=Wye Model=1 kV=13.8 kW=288.0 kVAR=139.48
New Load.Load_B46_1 Bus1=B46.1.2.3 Phases=3 Conn=Wye Model=1 kV=13.8 kW=648.0 kVAR=313.84
New Load.Load_B47_1 Bus1=B47.1.2.3 Phases=3 Conn=Wye Model=1 kV=13.8 kW=360.0 kVAR=174.36
New Load.Load_B48_2 Bus1=B48.1.2.3 Phases=3 Conn=Wye Model=1 kV=13.8 kW=288.0 kVAR=139.48
New Load.Load_B49_1 Bus1=B49.1.2.3 Phases=3 Conn=Wye Model=1 kV=13.8 kW=180.0 kVAR=87.16
New Load.Load_B50_2 Bus1=B50.1.2.3 Phases=3 Conn=Wye Model=1 kV=13.8 kW=288.0 kVAR=139.48

Set VoltageBases=[13.8]
CalcVoltageBases
Solve
